39

Fe	0.002607	0.002979	-0.183547
N	-2.045181	-0.170512	0.246964
C	-2.952609	0.864187	0.286435
C	-4.296959	0.333046	0.35838
C	-4.186617	-1.030673	0.365336
C	-2.773183	-1.338989	0.294305
C	-2.220317	-2.6244	0.297864
C	-0.858343	-2.953181	0.285876
C	-0.326616	-4.297294	0.35857
C	1.037089	-4.18648	0.363247
C	1.344817	-2.773125	0.288681
N	0.176018	-2.045564	0.2417
C	2.629799	-2.219755	0.290036
C	2.958519	-0.857806	0.276993
C	4.303069	-0.326942	0.346422
C	4.193297	1.036803	0.351951
C	2.779948	1.345488	0.28184
N	2.051463	0.177123	0.235593
C	2.226707	2.63067	0.286588
C	0.864593	2.959033	0.27792
C	0.333242	4.303395	0.346525
C	-1.03041	4.192712	0.354863
C	-1.338537	2.779075	0.287217
N	-0.169968	2.051251	0.240327
C	-2.62378	2.226009	0.294168
O	-0.005112	0.003426	-2.02977
H	-1.768348	4.982872	0.428425
H	0.933625	5.204408	0.382645
H	-5.197936	0.933487	0.395
H	-4.976703	-1.768494	0.441069
H	-0.926727	-5.198439	0.397216
H	1.775234	-4.976226	0.439391
H	4.983821	1.774335	0.425805
H	5.203784	-0.927701	0.384308
H	-2.916442	-3.458675	0.340331
H	-3.458275	2.922023	0.334092
H	3.464479	-2.915485	0.331228
H	2.922287	3.465567	0.325374
O	-0.073489	-0.085271	-3.38186
