58
 
Fe	-0.003431	-0.035901	0.191704
O	0.007226	0.008325	1.846502
N	1.554048	-1.407632	0.344106
N	1.538234	1.424943	0.103493
N	-1.556695	1.40855	0.125309
N	-1.550508	-1.413455	0.366576
C	2.629995	-0.616975	1.036221
H	3.553741	-1.206278	1.047926
H	2.295283	-0.456264	2.061576
C	2.848007	0.693273	0.323818
H	3.30402	0.537291	-0.654881
H	3.517827	1.331291	0.908336
C	1.299296	2.358097	1.268944
H	2.142497	3.059987	1.290626
H	1.323589	1.747352	2.171574
C	-0.010204	3.147269	1.201094
H	-0.008442	3.803428	2.078581
H	-0.016658	3.808972	0.330327
C	-1.31352	2.349732	1.282942
H	-1.32878	1.743119	2.188713
H	-2.161832	3.045389	1.307157
C	-2.86067	0.672616	0.365884
H	-3.524324	1.30872	0.959081
H	-3.329688	0.514086	-0.606036
C	-2.62445	-0.634941	1.074897
H	-3.543122	-1.231939	1.096083
H	-2.276773	-0.47398	2.095942
C	-1.243598	-2.590231	1.255122
H	-2.12858	-3.237182	1.239164
H	-1.126331	-2.186786	2.262724
C	0.009337	-3.36157	0.88165
H	0.005865	-3.682628	-0.164772
H	0.014308	-4.276464	1.482997
C	1.260259	-2.580701	1.243238
H	1.146278	-2.171486	2.248783
H	2.148217	-3.223356	1.225556
C	2.072583	-1.920958	-0.962204
H	2.927686	-2.577855	-0.768149
H	2.384376	-1.088318	-1.588696
H	1.288132	-2.475332	-1.474577
C	1.749116	2.256044	-1.129322
H	2.575275	2.95077	-0.940974
H	0.863088	2.832749	-1.375374
H	2.008375	1.615787	-1.970115
C	-1.790175	2.227509	-1.110158
H	-2.629967	2.90543	-0.919636
H	-2.041593	1.576254	-1.945458
H	-0.915296	2.818733	-1.361444
C	-2.077404	-1.919902	-0.938992
H	-2.937114	-2.57054	-0.743326
H	-1.29823	-2.47888	-1.454438
H	-2.384777	-1.083477	-1.562879
N	0.008603	-0.084785	-1.838313
C	0.027599	-0.059543	-2.996176
C	0.040635	-0.024538	-4.439096
H	-0.567866	0.81892	-4.779512
H	-0.37187	-0.960015	-4.827223
H	1.066353	0.095957	-4.799441
