11

Fe	0.006906	0.000706	-0.000006
C	1.813821	-0.001302	-0.001041
C	-0.98332	1.516294	0.000213
C	-0.981646	-1.516205	0.000956
C	0.076814	0.000959	-1.815825
C	0.077244	0.001856	1.815607
O	2.97019	-0.002554	-0.001386
O	-1.640297	2.467354	0.000415
O	-1.638062	-2.467624	0.001058
O	0.150834	0.001048	-2.9642
O	0.147516	-0.000532	2.964209
